FoamFile
{
    version 2.0;
    format  binary;
    class   volScalarField;
    location    "0";
    object  nut;
}

dimensions  [0 2 -1 0 0 0 0];

internalField   uniform 1.0;

boundaryField
{
}